Version 4
SHEET 1 1276 680
WIRE 304 -48 224 -48
WIRE 400 -48 304 -48
WIRE 432 -48 400 -48
WIRE 736 -48 640 -48
WIRE 992 -48 768 -48
WIRE 1072 -48 992 -48
WIRE 1136 -48 1072 -48
WIRE 224 0 224 -48
WIRE 304 0 304 -48
WIRE 1136 0 1136 -48
WIRE 752 16 752 -32
WIRE 800 16 752 16
WIRE 832 16 800 16
WIRE -80 96 -128 96
WIRE 16 96 -80 96
WIRE 160 96 48 96
WIRE 224 96 224 64
WIRE 224 96 160 96
WIRE 1136 96 1136 64
WIRE 432 112 432 -48
WIRE 640 112 640 -48
WIRE 992 112 992 -48
WIRE -128 128 -128 96
WIRE 32 144 32 112
WIRE 80 144 32 144
WIRE 112 144 80 144
WIRE 1136 208 1136 176
WIRE -128 240 -128 208
WIRE 272 240 -128 240
WIRE 304 240 304 64
WIRE 304 240 272 240
WIRE 224 256 224 96
WIRE 304 256 304 240
WIRE 224 368 224 320
WIRE 304 368 304 320
WIRE 304 368 224 368
WIRE 432 368 432 192
WIRE 432 368 304 368
WIRE 640 368 640 192
WIRE 640 368 432 368
WIRE 992 368 992 176
WIRE 992 368 640 368
WIRE 1136 368 1136 288
WIRE 1136 368 992 368
WIRE 224 400 224 368
FLAG 224 400 0
FLAG 400 -48 in
FLAG 1072 -48 out
FLAG 80 144 ig
FLAG 160 96 ac1
FLAG 272 240 ac2
FLAG 800 16 is
FLAG -80 96 ac
SYMBOL voltage -128 112 R0
WINDOW 123 0 0 Left 0
WINDOW 39 0 0 Left 0
SYMATTR InstName Vg
SYMATTR Value SINE(0 {sqrt(2)*230} 50)
SYMBOL Control\\idiode 240 64 R180
WINDOW 0 39 34 Left 2
SYMATTR InstName U1
SYMBOL Control\\idiode 320 64 R180
WINDOW 0 38 36 Left 2
SYMATTR InstName U2
SYMBOL Control\\idiode 240 320 R180
WINDOW 0 43 35 Left 2
SYMATTR InstName U3
SYMBOL Control\\idiode 320 320 R180
WINDOW 0 39 33 Left 2
SYMATTR InstName U4
SYMBOL res 416 96 R0
WINDOW 0 -63 37 Left 2
WINDOW 3 -88 72 Left 2
SYMATTR InstName Rg
SYMATTR Value 1653.1
SYMBOL Misc\\Gpoly 640 96 R0
SYMATTR InstName G1
SYMATTR Value value={v(in)*i(Rg)/v(out)}
SYMBOL cap 976 112 R0
SYMATTR InstName Co
SYMATTR Value 1.2m
SYMBOL res 1120 80 R0
SYMATTR InstName Rd
SYMATTR Value 16.4
SYMBOL Control\\idiode 1120 0 R0
SYMATTR InstName U5
SYMBOL voltage 1136 192 R0
WINDOW 0 44 34 Left 2
WINDOW 3 37 68 Left 2
SYMATTR InstName Vd
SYMATTR Value 63.5
SYMBOL Control\\isense 32 96 R0
SYMATTR InstName U6
SYMBOL Control\\isense 752 -48 R0
SYMATTR InstName U7
TEXT -64 -72 Left 2 !.tran 0 240m 200m uic
LINE Normal 576 160 480 160
LINE Normal 560 144 576 160
LINE Normal 560 176 576 160
